Questionable use of curly braces in "b§angular_velocity 0 angular_velocity  i=i{{rb}}"
    Error: undefined symbol in: "[rb]"
Questionable use of curly braces in "b§angular_velocity 0 angular_velocity  i=i({rb})"
    Error: undefined symbol in: "[rb]"
Questionable use of curly braces in "b§motor_current 0 motor_current  i=i{{rm}}"
    Error: undefined symbol in: "[rm]"
Questionable use of curly braces in "b§motor_current 0 motor_current  i=i({rm})"
    Error: undefined symbol in: "[rm]"
Questionable use of curly braces in "b§fpos 0 angular_position  i=i{{h_torq}}"
    Error: undefined symbol in: "[h_torq]"
Questionable use of curly braces in "b§fpos 0 angular_position  i=i({h_torq})"
    Error: undefined symbol in: "[h_torq]"
Circuit: * C:\Users\Matt\Documents\git\ltspice_models\dc_motor.asc

V_amp: Removing PWL point (2,10)
.OP point found by inspection.

Date: Fri Jul 01 23:37:35 2022
Total elapsed time: 0.194 seconds.

tnom = 27
temp = 27
method = modified trap
totiter = 22477
traniter = 22477
tranpoints = 10081
accept = 10080
rejected = 1
matrix size = 11
fillins = 2
solver = Normal
Matrix Compiler1:      22 opcodes  0.1/[0.0]/0.1
Matrix Compiler2: off  [0.0]/0.1/0.1

