Circuit: * C:\Users\Matt\Documents\git\ltspice_models\phase_shift_oscillator\phase_shift_oscillator_bjt.asc

Limiting rise time of source i1 to 1e-007
Limiting fall time of source i1 to 1e-007
WARNING: Node N002 is floating.

WARNING: Less than two connections to node N002.  This node is used by C5.
Direct Newton iteration for .op point succeeded.

Date: Mon Apr 08 22:41:46 2024
Total elapsed time: 0.916 seconds.

tnom = 27
temp = 27
method = modified trap
totiter = 549050
traniter = 549042
tranpoints = 208370
accept = 162012
rejected = 46358
matrix size = 11
fillins = 4
solver = Normal
Matrix Compiler1: 868 bytes object code size  0.2/0.1/[0.1]
Matrix Compiler2: off  [0.1]/0.2/0.1

