Circuit: * C:\Users\Matt\Documents\git\ltspice_models\phase_shift_oscillator\phase_shift_oscillator.asc

Limiting rise time of source i1 to 1e-007
Limiting fall time of source i1 to 1e-007
Direct Newton iteration for .op point succeeded.
Heightened Def Con from 0.585754 to 0.585754

Date: Mon Apr 08 22:25:32 2024
Total elapsed time: 22.728 seconds.

tnom = 27
temp = 27
method = modified trap
totiter = 5092956
traniter = 5092952
tranpoints = 1420965
accept = 1049613
rejected = 371353
matrix size = 15
fillins = 11
solver = Normal
Matrix Compiler1: 1.31 KB object code size  0.3/0.1/[0.1]
Matrix Compiler2: off  [0.1]/0.1/0.1

